tests/data/power_flow/dummy-test/asym_output.json
{
  "version": "1.0",
  "type": "asym_output",
  "is_batch": false,
  "attributes": {},
  "data": {
    "node": [
      {
        "id": 1,
        "u_pu": [
          1.05,
          1.05,
          1.05
        ],
        "u_angle": [
          0.0,
          0.0,
          0.0
        ],
        "p": [
          735000.0,
          735000.0,
          735000.0
        ],
        "q": [
          0.0,
          0.0,
          0.0
        ]
      },
      {
        "id": 2,
        "u_pu": [
          0.84,
          0.84,
          0.84
        ],
        "p": [
          0.0,
          0.0,
          0.0
        ],
        "q": [
          0.0,
          0.0,
          0.0
        ]
      },
      {
        "id": 3,
        "u_pu": [
          0.84,
          0.84,
          0.84
        ],
        "p": [
          -235200.0,
          -235200.0,
          -235200.0
        ],
        "q": [
          0.0,
          0.0,
          0.0
        ]
      }
    ],
    "line": [
      {
        "id": 4,
        "i_from": [
          121.24355652982142,
          121.24355652982142,
          121.24355652982142
        ]
      }
    ],
    "link": [
      {
        "id": 5,
        "i_from": [
          121.24355652982142,
          121.24355652982142,
          121.24355652982142
        ]
      }
    ],
    "source": [
      {
        "id": 6,
        "i": [
          121.24355652982142,
          121.24355652982142,
          121.24355652982142
        ],
        "p": [
          735000.0,
          735000.0,
          735000.0
        ],
        "q": [
          0.0,
          0.0,
          0.0
        ]
      },
      {
        "id": 10,
        "i": [
          0.0,
          0.0,
          0.0
        ],
        "p": [
          0.0,
          0.0,
          0.0
        ],
        "q": [
          0.0,
          0.0,
          0.0
        ]
      }
    ],
    "sym_load": [
      {
        "id": 7,
        "i": [
          24.24871130596428,
          24.24871130596428,
          24.24871130596428
        ],
        "p": [
          117600.0,
          117600.0,
          117600.0
        ],
        "q": [
          0.0,
          0.0,
          0.0
        ]
      }
    ],
    "asym_load": [
      {
        "id": 8,
        "i": [
          24.24871130596428,
          24.24871130596428,
          24.24871130596428
        ],
        "p": [
          117600.0,
          117600.0,
          117600.0
        ],
        "q": [
          0.0,
          0.0,
          0.0
        ]
      }
    ],
    "shunt": [
      {
        "id": 9,
        "i": [
          72.74613391789285,
          72.74613391789285,
          72.74613391789285
        ],
        "p": [
          352800.0,
          352800.0,
          352800.0
        ],
        "q": [
          0.0,
          0.0,
          0.0
        ],
        "s": [
          352800.0,
          352800.0,
          352800.0
        ],
        "pf": [
          1.0,
          1.0,
          1.0
        ]
      }
    ]
  }
}
